  Page 1                                    Sat Dec 10 13:45:12 2022

  ******************************************************************
  *                           E P A N E T                          *
  *                   Hydraulic and Water Quality                  *
  *                   Analysis for Pipe Networks                   *
  *                         Version 2.00.12                        *
  ******************************************************************
  
  Analysis begun Sat Dec 10 13:45:13 2022

  WARNING: Negative pressures at 0:00:00 hrs.
  
  WARNING: Negative pressures at 1:00:00 hrs.
  
  WARNING: Negative pressures at 6:00:00 hrs.
  
  WARNING: Negative pressures at 7:00:00 hrs.
  
  WARNING: Negative pressures at 8:00:00 hrs.
  
  WARNING: Negative pressures at 22:00:00 hrs.
  
  Analysis ended Sat Dec 10 13:45:14 2022
